timestep 0.001

min_style cg
minimize 1.0e-4 1.0e-6 1000 10000
PPPM initialization ...
  G vector (1/distance) = 0.37055127
  grid = 54 48 64
  stencil order = 5
  estimated absolute RMS force accuracy = 0.0016960099
  estimated relative force accuracy = 0.00011778137
  3d grid and FFT values/proc = 34336 20736
Generated 0 of 6 mixed pair_coeff terms from geometric mixing rule
  update every 1 steps, delay 0 steps, check yes
Step          Temp          E_pair         E_mol          TotEng         Press
0   1e-05         -205933.95      0             -205933.95     -12442.935
Loop time of 0.780378 on 8 procs for 59 steps with 11348 atoms

Minimization stats:
  Stopping criterion = energy tolerance
  Energy initial, next-to-last, final =
  Force two-norm initial, final = 987.75061 54.804557
  Force max component initial, final = 22.129511 8.6729852
  Final line search alpha, max atom move = 0.0092635948 0.080343021
  Iterations, force evaluations = 59 67

fix                 1 all npt temp 300 300 0.1 iso 1.0 1.0 1.0
dump                1 all atom 100 dump00_300.adp
thermo              100
run                 23000
PPPM initialization ...
  G vector (1/distance) = 0.37055127
  grid = 54 48 64
  stencil order = 5
  estimated absolute RMS force accuracy = 0.0016960099
  estimated relative force accuracy = 0.00011778137
  3d grid and FFT values/proc = 34336 20736
Generated 0 of 6 mixed pair_coeff terms from geometric mixing rule
Step          Temp          E_pair         E_mol          TotEng         Press          Volume
59   1e-05         -215914.48      0             -215914.48      18449.422      181806.46
Averages over the last 116 of 232 rows, steps 11600 to 23059:
Temp E_pair E_mol TotEng Press Volume
300.124 -218600 0 -218159 136.578 192895
Loop time of 297.566 on 8 procs for 23000 steps with 11348 atoms

unfix 1

timestep 0.001
fix                 1 all nvt temp 300 300 0.1
compute             myRDF all rdf 100
fix                 RDF all ave/time 100 1 100 c_myRDF[*] file lammps00_300.rdf mode vector
run                 345000
PPPM initialization ...
  G vector (1/distance) = 0.3685921
  grid = 54 48 64
  stencil order = 5
  estimated absolute RMS force accuracy = 0.0018012891
  estimated relative force accuracy = 0.0001250926
  3d grid and FFT values/proc = 34336 20736
Generated 0 of 6 mixed pair_coeff terms from geometric mixing rule
  update every 1 steps, delay 0 steps, check yes
Step          Temp          E_pair         E_mol          TotEng         Press
23059   297.67401     -218605.9       0             -218169.3       213.22493
Averages over the last 1726 of 3452 rows, steps 195600 to 368059:
Temp E_pair E_mol TotEng Press
299.956 -218673 0 -218233 -1574.35
Loop time of 3275.54 on 8 procs for 345000 steps with 11348 atoms

undump              1
unfix               1
unfix               RDF
uncompute           myRDF

Temp = 300

variable Tmp delete
next a
jump SELF loop_start
print "loop body"
loop body
variable Tmp equal (2-1)*5+300

reset_timestep 0

velocity	all create 0.00001 87287

pair_style buck/coul/long 8.0
pair_coeff 1 1 0.0        1.0      0.0
pair_coeff 2 2 2029.2204  0.343645 192.58000
pair_coeff 3 3 0.0        1.0      0.0
pair_coeff 4 4 0.0        1.0      0.0
pair_coeff 1 2 41051.9380 0.151160 0.0000
pair_coeff 1 3 0.0        1.0      0.0
pair_coeff 1 4 0.0        1.0      0.0
pair_coeff 2 3 26655.4720 0.181968 86.5860
pair_coeff 2 4 17943.3840 0.226627 127.6500
pair_coeff 3 4 0.0        1.0      0.0
kspace_style pppm 1.0e-4

neighbor	0.3 bin
neigh_modify	every 1 delay 0 check yes

log log.lammps00_305
