timestep 0.001

min_style cg
minimize 1.0e-4 1.0e-6 1000 10000
PPPM initialization ...
  G vector (1/distance) = 0.36916879
  grid = 54 48 64
  stencil order = 5
  estimated absolute RMS force accuracy = 0.0017717501
  estimated relative force accuracy = 0.00012304124
  3d grid and FFT values/proc = 34336 20736
Generated 0 of 6 mixed pair_coeff terms from geometric mixing rule
  update every 1 steps, delay 0 steps, check yes
Step          Temp          E_pair         E_mol          TotEng         Press
0   1e-05         -218754.16      0             -218754.16     -3200.8316
Loop time of 0.120768 on 8 procs for 5 steps with 11348 atoms

Minimization stats:
  Stopping criterion = energy tolerance
  Energy initial, next-to-last, final =
  Force two-norm initial, final = 193.56481 34.737857
  Force max component initial, final = 6.5619499 1.2550196
  Final line search alpha, max atom move = 0.051130166 0.064169359
  Iterations, force evaluations = 5 10

fix                 1 all npt temp 335 335 0.1 iso 1.0 1.0 1.0
dump                1 all atom 100 dump00_335.adp
thermo              100
run                 23000
PPPM initialization ...
  G vector (1/distance) = 0.36916879
  grid = 54 48 64
  stencil order = 5
  estimated absolute RMS force accuracy = 0.0017717501
  estimated relative force accuracy = 0.00012304124
  3d grid and FFT values/proc = 34336 20736
Generated 0 of 6 mixed pair_coeff terms from geometric mixing rule
Step          Temp          E_pair         E_mol          TotEng         Press          Volume
5   1e-05         -219156.35      0             -219156.35     -4658.7523      189898.33
Averages over the last 116 of 232 rows, steps 11600 to 23005:
Temp E_pair E_mol TotEng Press Volume
335.147 -218748 0 -218256 109.555 189678
Loop time of 293.683 on 8 procs for 23000 steps with 11348 atoms

unfix 1

timestep 0.001
fix                 1 all nvt temp 335 335 0.1
compute             myRDF all rdf 100
fix                 RDF all ave/time 100 1 100 c_myRDF[*] file lammps00_335.rdf mode vector
run                 345000
PPPM initialization ...
  G vector (1/distance) = 0.36922542
  grid = 54 48 64
  stencil order = 5
  estimated absolute RMS force accuracy = 0.0017685881
  estimated relative force accuracy = 0.00012282164
  3d grid and FFT values/proc = 34336 20736
Generated 0 of 6 mixed pair_coeff terms from geometric mixing rule
  update every 1 steps, delay 0 steps, check yes
Step          Temp          E_pair         E_mol          TotEng         Press
23005   338.6685      -218750.03      0             -218253.3      -341.08727
Averages over the last 1726 of 3452 rows, steps 195600 to 368005:
Temp E_pair E_mol TotEng Press
335.039 -218752 0 -218260 76.2219
Loop time of 3318.61 on 8 procs for 345000 steps with 11348 atoms

undump              1
unfix               1
unfix               RDF
uncompute           myRDF

Temp = 335

variable Tmp delete
next a
jump SELF loop_start
print "loop body"
loop body
variable Tmp equal (9-1)*5+300

reset_timestep 0

velocity	all create 0.00001 87287

pair_style buck/coul/long 8.0
pair_coeff 1 1 0.0        1.0      0.0
pair_coeff 2 2 2029.2204  0.343645 192.58000
pair_coeff 3 3 0.0        1.0      0.0
pair_coeff 4 4 0.0        1.0      0.0
pair_coeff 1 2 41051.9380 0.151160 0.0000
pair_coeff 1 3 0.0        1.0      0.0
pair_coeff 1 4 0.0        1.0      0.0
pair_coeff 2 3 26655.4720 0.181968 86.5860
pair_coeff 2 4 17943.3840 0.226627 127.6500
pair_coeff 3 4 0.0        1.0      0.0
kspace_style pppm 1.0e-4

neighbor	0.3 bin
neigh_modify	every 1 delay 0 check yes

log log.lammps00_340
