timestep 0.001

min_style cg
minimize 1.0e-4 1.0e-6 1000 10000
PPPM initialization ...
  G vector (1/distance) = 0.36922542
  grid = 54 48 64
  stencil order = 5
  estimated absolute RMS force accuracy = 0.0017685881
  estimated relative force accuracy = 0.00012282164
  3d grid and FFT values/proc = 34336 20736
Generated 0 of 6 mixed pair_coeff terms from geometric mixing rule
  update every 1 steps, delay 0 steps, check yes
Step          Temp          E_pair         E_mol          TotEng         Press
0   1e-05         -218749.15      0             -218749.15     -1935.3807
Loop time of 0.140976 on 8 procs for 6 steps with 11348 atoms

Minimization stats:
  Stopping criterion = energy tolerance
  Energy initial, next-to-last, final =
  Force two-norm initial, final = 196.28663 38.900508
  Force max component initial, final = 6.3721889 1.6879461
  Final line search alpha, max atom move = 0.075655099 0.12770173
  Iterations, force evaluations = 6 12

fix                 1 all npt temp 340 340 0.1 iso 1.0 1.0 1.0
dump                1 all atom 100 dump00_340.adp
thermo              100
run                 23000
PPPM initialization ...
  G vector (1/distance) = 0.36922542
  grid = 54 48 64
  stencil order = 5
  estimated absolute RMS force accuracy = 0.0017685881
  estimated relative force accuracy = 0.00012282164
  3d grid and FFT values/proc = 34336 20736
Generated 0 of 6 mixed pair_coeff terms from geometric mixing rule
Step          Temp          E_pair         E_mol          TotEng         Press          Volume
6   1e-05         -219178.67      0             -219178.67     -2007.5149      189560.63
Averages over the last 116 of 232 rows, steps 11600 to 23006:
Temp E_pair E_mol TotEng Press Volume
339.997 -218748 0 -218249 -1.9901 189336
Loop time of 295.997 on 8 procs for 23000 steps with 11348 atoms

unfix 1

timestep 0.001
fix                 1 all nvt temp 340 340 0.1
compute             myRDF all rdf 100
fix                 RDF all ave/time 100 1 100 c_myRDF[*] file lammps00_340.rdf mode vector
run                 345000
PPPM initialization ...
  G vector (1/distance) = 0.36922131
  grid = 54 48 64
  stencil order = 5
  estimated absolute RMS force accuracy = 0.0017688172
  estimated relative force accuracy = 0.00012283756
  3d grid and FFT values/proc = 34336 20736
Generated 0 of 6 mixed pair_coeff terms from geometric mixing rule
  update every 1 steps, delay 0 steps, check yes
Step          Temp          E_pair         E_mol          TotEng         Press
23006   338.67532     -218748.29      0             -218251.55     -313.5611
Averages over the last 1726 of 3452 rows, steps 195600 to 368006:
Temp E_pair E_mol TotEng Press
340.241 -218749 0 -218250 -471.524
Loop time of 3316.23 on 8 procs for 345000 steps with 11348 atoms

undump              1
unfix               1
unfix               RDF
uncompute           myRDF

Temp = 340

variable Tmp delete
next a
jump SELF loop_start
print "loop body"
loop body
variable Tmp equal (10-1)*5+300

reset_timestep 0

velocity	all create 0.00001 87287

pair_style buck/coul/long 8.0
pair_coeff 1 1 0.0        1.0      0.0
pair_coeff 2 2 2029.2204  0.343645 192.58000
pair_coeff 3 3 0.0        1.0      0.0
pair_coeff 4 4 0.0        1.0      0.0
pair_coeff 1 2 41051.9380 0.151160 0.0000
pair_coeff 1 3 0.0        1.0      0.0
pair_coeff 1 4 0.0        1.0      0.0
pair_coeff 2 3 26655.4720 0.181968 86.5860
pair_coeff 2 4 17943.3840 0.226627 127.6500
pair_coeff 3 4 0.0        1.0      0.0
kspace_style pppm 1.0e-4

neighbor	0.3 bin
neigh_modify	every 1 delay 0 check yes

log log.lammps00_345
