timestep 0.001

min_style cg
minimize 1.0e-4 1.0e-6 1000 10000
PPPM initialization ...
  G vector (1/distance) = 0.3689864
  grid = 54 48 64
  stencil order = 5
  estimated absolute RMS force accuracy = 0.0017783949
  estimated relative force accuracy = 0.00012350269
  3d grid and FFT values/proc = 34336 20736
Generated 0 of 6 mixed pair_coeff terms from geometric mixing rule
  update every 1 steps, delay 0 steps, check yes
Step          Temp          E_pair         E_mol          TotEng         Press
0   1e-05         -218745.27      0             -218745.27     -3569.6686
Loop time of 0.125125 on 8 procs for 5 steps with 11348 atoms

Minimization stats:
  Stopping criterion = energy tolerance
  Energy initial, next-to-last, final =
  Force two-norm initial, final = 189.87668 34.079249
  Force max component initial, final = 5.0593856 1.7042976
  Final line search alpha, max atom move = 0.057328855 0.097705432
  Iterations, force evaluations = 5 10

fix                 1 all npt temp 325 325 0.1 iso 1.0 1.0 1.0
dump                1 all atom 100 dump00_325.adp
thermo              100
run                 23000
PPPM initialization ...
  G vector (1/distance) = 0.3689864
  grid = 54 48 64
  stencil order = 5
  estimated absolute RMS force accuracy = 0.0017783949
  estimated relative force accuracy = 0.00012350269
  3d grid and FFT values/proc = 34336 20736
Generated 0 of 6 mixed pair_coeff terms from geometric mixing rule
Step          Temp          E_pair         E_mol          TotEng         Press          Volume
5   1e-05         -219130.88      0             -219130.88     -3274.7369      190279.83
Averages over the last 116 of 232 rows, steps 11600 to 23005:
Temp E_pair E_mol TotEng Press Volume
324.919 -218737 0 -218260 11.9837 190312
Loop time of 313.589 on 8 procs for 23000 steps with 11348 atoms

unfix 1

timestep 0.001
fix                 1 all nvt temp 325 325 0.1
compute             myRDF all rdf 100
fix                 RDF all ave/time 100 1 100 c_myRDF[*] file lammps00_325.rdf mode vector
run                 345000
PPPM initialization ...
  G vector (1/distance) = 0.36902811
  grid = 54 48 64
  stencil order = 5
  estimated absolute RMS force accuracy = 0.0017759848
  estimated relative force accuracy = 0.00012333532
  3d grid and FFT values/proc = 34336 20736
Generated 0 of 6 mixed pair_coeff terms from geometric mixing rule
  update every 1 steps, delay 0 steps, check yes
Step          Temp          E_pair         E_mol          TotEng         Press
23005   321.68234     -218737.77      0             -218265.96     -428.38466
Averages over the last 1726 of 3452 rows, steps 195600 to 368005:
Temp E_pair E_mol TotEng Press
324.809 -218749 0 -218273 -378.627
Loop time of 3569.67 on 8 procs for 345000 steps with 11348 atoms

undump              1
unfix               1
unfix               RDF
uncompute           myRDF

Temp = 325

variable Tmp delete
next a
jump SELF loop_start
print "loop body"
loop body
variable Tmp equal (7-1)*5+300

reset_timestep 0

velocity	all create 0.00001 87287

pair_style buck/coul/long 8.0
pair_coeff 1 1 0.0        1.0      0.0
pair_coeff 2 2 2029.2204  0.343645 192.58000
pair_coeff 3 3 0.0        1.0      0.0
pair_coeff 4 4 0.0        1.0      0.0
pair_coeff 1 2 41051.9380 0.151160 0.0000
pair_coeff 1 3 0.0        1.0      0.0
pair_coeff 1 4 0.0        1.0      0.0
pair_coeff 2 3 26655.4720 0.181968 86.5860
pair_coeff 2 4 17943.3840 0.226627 127.6500
pair_coeff 3 4 0.0        1.0      0.0
kspace_style pppm 1.0e-4

neighbor	0.3 bin
neigh_modify	every 1 delay 0 check yes

log log.lammps00_330
