timestep 0.001

min_style cg
minimize 1.0e-4 1.0e-6 1000 10000
PPPM initialization ...
  G vector (1/distance) = 0.3685921
  grid = 54 48 64
  stencil order = 5
  estimated absolute RMS force accuracy = 0.0018012891
  estimated relative force accuracy = 0.0001250926
  3d grid and FFT values/proc = 34336 20736
Generated 0 of 6 mixed pair_coeff terms from geometric mixing rule
  update every 1 steps, delay 0 steps, check yes
Step          Temp          E_pair         E_mol          TotEng         Press
0   1e-05         -218680.06      0             -218680.06     -4909.3726
Loop time of 0.122603 on 8 procs for 5 steps with 11348 atoms

Minimization stats:
  Stopping criterion = energy tolerance
  Energy initial, next-to-last, final =
  Force two-norm initial, final = 184.64678 33.725716
  Force max component initial, final = 6.642631 1.8640468
  Final line search alpha, max atom move = 0.055738279 0.10389876
  Iterations, force evaluations = 5 10

fix                 1 all npt temp 305 305 0.1 iso 1.0 1.0 1.0
dump                1 all atom 100 dump00_305.adp
thermo              100
run                 23000
PPPM initialization ...
  G vector (1/distance) = 0.3685921
  grid = 54 48 64
  stencil order = 5
  estimated absolute RMS force accuracy = 0.0018012891
  estimated relative force accuracy = 0.0001250926
  3d grid and FFT values/proc = 34336 20736
Generated 0 of 6 mixed pair_coeff terms from geometric mixing rule
Step          Temp          E_pair         E_mol          TotEng         Press          Volume
5   1e-05         -219045.29      0             -219045.29     -5572.9307      192782.64
Averages over the last 116 of 232 rows, steps 11600 to 23005:
Temp E_pair E_mol TotEng Press Volume
305.046 -218693 0 -218245 4.22738 191351
Loop time of 293.77 on 8 procs for 23000 steps with 11348 atoms

unfix 1

timestep 0.001
fix                 1 all nvt temp 305 305 0.1
compute             myRDF all rdf 100
fix                 RDF all ave/time 100 1 100 c_myRDF[*] file lammps00_305.rdf mode vector
run                 345000
PPPM initialization ...
  G vector (1/distance) = 0.36882357
  grid = 54 48 64
  stencil order = 5
  estimated absolute RMS force accuracy = 0.001787825
  estimated relative force accuracy = 0.00012415757
  3d grid and FFT values/proc = 34336 20736
Generated 0 of 6 mixed pair_coeff terms from geometric mixing rule
  update every 1 steps, delay 0 steps, check yes
Step          Temp          E_pair         E_mol          TotEng         Press
23005   307.43658     -218691.11      0             -218240.19     -387.96561
Averages over the last 1726 of 3452 rows, steps 195600 to 368005:
Temp E_pair E_mol TotEng Press
305.061 -218712 0 -218265 -351.229
Loop time of 3304.27 on 8 procs for 345000 steps with 11348 atoms

undump              1
unfix               1
unfix               RDF
uncompute           myRDF

Temp = 305

variable Tmp delete
next a
jump SELF loop_start
print "loop body"
loop body
variable Tmp equal (3-1)*5+300

reset_timestep 0

velocity	all create 0.00001 87287

pair_style buck/coul/long 8.0
pair_coeff 1 1 0.0        1.0      0.0
pair_coeff 2 2 2029.2204  0.343645 192.58000
pair_coeff 3 3 0.0        1.0      0.0
pair_coeff 4 4 0.0        1.0      0.0
pair_coeff 1 2 41051.9380 0.151160 0.0000
pair_coeff 1 3 0.0        1.0      0.0
pair_coeff 1 4 0.0        1.0      0.0
pair_coeff 2 3 26655.4720 0.181968 86.5860
pair_coeff 2 4 17943.3840 0.226627 127.6500
pair_coeff 3 4 0.0        1.0      0.0
kspace_style pppm 1.0e-4

neighbor	0.3 bin
neigh_modify	every 1 delay 0 check yes

log log.lammps00_310
