timestep 0.001

min_style cg
minimize 1.0e-4 1.0e-6 1000 10000
PPPM initialization ...
  G vector (1/distance) = 0.36902811
  grid = 54 48 64
  stencil order = 5
  estimated absolute RMS force accuracy = 0.0017759848
  estimated relative force accuracy = 0.00012333532
  3d grid and FFT values/proc = 34336 20736
Generated 0 of 6 mixed pair_coeff terms from geometric mixing rule
  update every 1 steps, delay 0 steps, check yes
Step          Temp          E_pair         E_mol          TotEng         Press
0   1e-05         -218752.6       0             -218752.6      -3357.6432
Loop time of 0.115927 on 8 procs for 5 steps with 11348 atoms

Minimization stats:
  Stopping criterion = energy tolerance
  Energy initial, next-to-last, final =
  Force two-norm initial, final = 191.45097 35.027781
  Force max component initial, final = 6.1010823 2.1083097
  Final line search alpha, max atom move = 0.043037315 0.090735987
  Iterations, force evaluations = 5 10

fix                 1 all npt temp 330 330 0.1 iso 1.0 1.0 1.0
dump                1 all atom 100 dump00_330.adp
thermo              100
run                 23000
PPPM initialization ...
  G vector (1/distance) = 0.36902811
  grid = 54 48 64
  stencil order = 5
  estimated absolute RMS force accuracy = 0.0017759848
  estimated relative force accuracy = 0.00012333532
  3d grid and FFT values/proc = 34336 20736
Generated 0 of 6 mixed pair_coeff terms from geometric mixing rule
Step          Temp          E_pair         E_mol          TotEng         Press          Volume
5   1e-05         -219147.68      0             -219147.68     -3869.3095      190015.97
Averages over the last 116 of 232 rows, steps 11600 to 23005:
Temp E_pair E_mol TotEng Press Volume
330.144 -218745 0 -218261 -84.1216 189900
Loop time of 298.73 on 8 procs for 23000 steps with 11348 atoms

unfix 1

timestep 0.001
fix                 1 all nvt temp 330 330 0.1
compute             myRDF all rdf 100
fix                 RDF all ave/time 100 1 100 c_myRDF[*] file lammps00_330.rdf mode vector
run                 345000
PPPM initialization ...
  G vector (1/distance) = 0.36916879
  grid = 54 48 64
  stencil order = 5
  estimated absolute RMS force accuracy = 0.0017717501
  estimated relative force accuracy = 0.00012304124
  3d grid and FFT values/proc = 34336 20736
Generated 0 of 6 mixed pair_coeff terms from geometric mixing rule
  update every 1 steps, delay 0 steps, check yes
Step          Temp          E_pair         E_mol          TotEng         Press
23005   331.57648     -218739.93      0             -218253.61     -390.60393
Averages over the last 1726 of 3452 rows, steps 195600 to 368005:
Temp E_pair E_mol TotEng Press
330.126 -218752 0 -218268 -253.494
Loop time of 3326.44 on 8 procs for 345000 steps with 11348 atoms

undump              1
unfix               1
unfix               RDF
uncompute           myRDF

Temp = 330

variable Tmp delete
next a
jump SELF loop_start
print "loop body"
loop body
variable Tmp equal (8-1)*5+300

reset_timestep 0

velocity	all create 0.00001 87287

pair_style buck/coul/long 8.0
pair_coeff 1 1 0.0        1.0      0.0
pair_coeff 2 2 2029.2204  0.343645 192.58000
pair_coeff 3 3 0.0        1.0      0.0
pair_coeff 4 4 0.0        1.0      0.0
pair_coeff 1 2 41051.9380 0.151160 0.0000
pair_coeff 1 3 0.0        1.0      0.0
pair_coeff 1 4 0.0        1.0      0.0
pair_coeff 2 3 26655.4720 0.181968 86.5860
pair_coeff 2 4 17943.3840 0.226627 127.6500
pair_coeff 3 4 0.0        1.0      0.0
kspace_style pppm 1.0e-4

neighbor	0.3 bin
neigh_modify	every 1 delay 0 check yes

log log.lammps00_335
